Version 4
SHEET 1 2148 840
WIRE 752 -304 736 -304
WIRE 1264 -304 832 -304
WIRE 736 -256 736 -304
WIRE 1264 -256 1264 -304
WIRE 640 -224 528 -224
WIRE 528 -128 528 -160
WIRE -240 -96 -320 -96
WIRE -192 -96 -240 -96
WIRE -16 -96 -112 -96
WIRE 80 -96 -16 -96
WIRE 176 -96 80 -96
WIRE 256 -96 176 -96
WIRE 400 -96 256 -96
WIRE 640 -96 640 -224
WIRE 640 -96 400 -96
WIRE 752 -96 640 -96
WIRE 864 -96 800 -96
WIRE 1024 -96 928 -96
WIRE 1088 -96 1024 -96
WIRE 1152 -96 1088 -96
WIRE 1264 -96 1264 -192
WIRE 1264 -96 1152 -96
WIRE 1328 -96 1264 -96
WIRE 1616 -96 1408 -96
WIRE 1776 -96 1728 -96
WIRE 1888 -96 1776 -96
WIRE 2032 -96 1888 -96
WIRE 2064 -96 2032 -96
WIRE 752 -80 752 -96
WIRE 800 -80 800 -96
WIRE 1024 -80 1024 -96
WIRE 1088 -80 1088 -96
WIRE 1152 -80 1152 -96
WIRE 1888 -80 1888 -96
WIRE -240 -64 -240 -96
WIRE -16 -64 -16 -96
WIRE 2064 -48 2064 -96
WIRE 400 -32 400 -96
WIRE 1344 -16 1344 -48
WIRE 1568 -16 1536 -16
WIRE 1776 -16 1776 -32
WIRE 176 0 176 -96
WIRE 1888 0 1888 -16
WIRE 256 16 256 -96
WIRE 272 16 256 16
WIRE 608 16 528 16
WIRE 752 16 752 0
WIRE 752 16 688 16
WIRE 800 16 800 0
WIRE 1024 16 1024 -16
WIRE 1088 16 1088 -16
WIRE 1088 16 1024 16
WIRE 1152 16 1152 -16
WIRE 1152 16 1088 16
WIRE -240 32 -240 0
WIRE -16 32 -16 0
WIRE 1088 32 1088 16
WIRE -320 48 -320 -16
WIRE 1536 80 1536 -16
WIRE 1616 80 1536 80
WIRE 1728 80 1728 -96
WIRE 1728 80 1616 80
WIRE 176 96 176 80
WIRE 272 96 176 96
WIRE 544 96 528 96
WIRE 752 96 752 16
WIRE 752 96 624 96
WIRE 1152 96 1152 16
WIRE 1776 96 1776 64
WIRE 1776 96 1152 96
WIRE 1888 96 1888 64
WIRE 1888 96 1776 96
WIRE 2064 96 2064 32
WIRE 2064 96 1888 96
WIRE 1392 128 1392 -48
WIRE 1392 128 1328 128
WIRE 1392 160 1392 128
WIRE -16 176 -96 176
WIRE 192 176 48 176
WIRE 272 176 192 176
WIRE 704 176 528 176
WIRE 208 256 112 256
WIRE 272 256 208 256
WIRE 752 256 752 192
WIRE 752 256 528 256
WIRE 112 272 112 256
WIRE 208 272 208 256
WIRE 752 272 752 256
WIRE 1392 272 1392 240
WIRE 400 320 400 304
WIRE 112 368 112 336
WIRE 208 368 208 352
WIRE 752 368 752 352
WIRE -96 416 -96 176
WIRE 1280 416 -96 416
WIRE 1328 416 1328 128
WIRE 1328 416 1280 416
FLAG -320 48 0
FLAG 1088 32 0
FLAG 1088 -96 Vcap
FLAG 1344 -16 0
FLAG 736 -256 0
FLAG 1392 272 0
FLAG 2032 -96 Vsel
FLAG 112 368 0
FLAG 208 368 0
FLAG 400 320 0
FLAG 752 368 0
FLAG 800 16 0
FLAG -16 32 0
FLAG 192 176 Charge
FLAG 1280 416 ser
FLAG 80 -96 Vcc
FLAG 528 -128 0
FLAG -240 32 0
SYMBOL voltage -320 -112 R0
WINDOW 123 0 0 Left 2
WINDOW 39 -148 71 Left 2
WINDOW 0 17 -8 Left 2
WINDOW 3 -83 43 Left 2
SYMATTR SpiceLine Rser=0.1
SYMATTR InstName V1
SYMATTR Value 4.8
SYMBOL cap 1072 -80 R0
SYMATTR InstName C2
SYMATTR Value 1µf
SYMATTR SpiceLine Rser=0.1
SYMBOL sw 1312 -96 R270
SYMATTR InstName S1
SYMATTR Value SW1
SYMBOL ind 2048 -64 R0
SYMATTR InstName L4
SYMATTR Value 5.5H
SYMATTR SpiceLine Rser=220
SYMBOL cap 1760 -96 R0
SYMATTR InstName C7
SYMATTR Value 1000pf
SYMBOL res 1760 -32 R0
SYMATTR InstName R1
SYMATTR Value 10
SYMBOL diode 1248 -256 R0
WINDOW 3 50 27 Left 2
SYMATTR Value MURS120
SYMATTR InstName D6
SYMBOL voltage 848 -304 R90
WINDOW 0 -32 56 VBottom 2
WINDOW 3 32 56 VTop 2
WINDOW 123 0 0 Left 2
WINDOW 39 81 45 VBottom 2
SYMATTR InstName V2
SYMATTR Value 15V
SYMATTR SpiceLine Rser=1
SYMBOL voltage 1392 144 R0
WINDOW 123 0 0 Left 2
WINDOW 39 0 0 Left 2
SYMATTR InstName V3
SYMATTR Value PULSE(0 3.3 0 1us 1us 22ms 44ms)
SYMBOL zener 1872 0 R0
WINDOW 3 37 35 Left 2
SYMATTR Value 1N5380BG
SYMATTR InstName D10
SYMBOL zener 1904 -16 R180
WINDOW 0 -40 62 Left 2
WINDOW 3 -119 38 Left 2
SYMATTR InstName D11
SYMATTR Value 1N5380BG
SYMBOL cap 1008 -80 R0
SYMATTR InstName C1
SYMATTR Value 1µf
SYMATTR SpiceLine Rser=0.1
SYMBOL ind2 736 -96 R0
WINDOW 0 0 36 Right 2
WINDOW 3 0 71 Right 2
SYMATTR InstName L1
SYMATTR Value 10µ
SYMATTR SpiceLine Cpar=200p
SYMBOL ind2 816 16 R180
WINDOW 0 -6 75 Right 2
WINDOW 3 -5 45 Right 2
SYMATTR InstName L2
SYMATTR Value 1m
SYMBOL diode 864 -80 R270
WINDOW 0 32 32 VTop 2
WINDOW 3 0 32 VBottom 2
SYMATTR InstName D1
SYMBOL res 160 -16 R0
SYMATTR InstName R2
SYMATTR Value 100K
SYMBOL res 736 256 R0
SYMATTR InstName R3
SYMATTR Value 91m
SYMBOL res 704 0 R90
WINDOW 0 0 56 VBottom 2
WINDOW 3 32 56 VTop 2
SYMATTR InstName R4
SYMATTR Value 23K
SYMBOL res 640 80 R90
WINDOW 0 0 56 VBottom 2
WINDOW 3 32 56 VTop 2
SYMATTR InstName R6
SYMATTR Value 43K
SYMBOL res 192 256 R0
SYMATTR InstName R7
SYMATTR Value 2.49K
SYMBOL PowerProducts\\LT3750 400 128 R0
WINDOW 0 26 -179 Center 2
SYMATTR InstName U1
SYMBOL nmos 704 96 R0
SYMATTR InstName Q1
SYMATTR Value IRL530NS_L
SYMBOL cap 96 272 R0
SYMATTR InstName C5
SYMATTR Value 100p
SYMBOL cap -32 -64 R0
SYMATTR InstName C4
SYMATTR Value 220µf
SYMBOL Digital\\inv -16 112 R0
WINDOW 3 -7 98 Left 2
SYMATTR Value Vhigh=3.3
SYMATTR InstName A1
SYMBOL cap 512 -224 R0
SYMATTR InstName C8
SYMATTR Value 33µf
SYMATTR SpiceLine Rser=0.1
SYMBOL ind -208 -80 R270
WINDOW 0 32 56 VTop 2
WINDOW 3 5 56 VBottom 2
SYMATTR InstName L3
SYMATTR Value 1µ
SYMATTR SpiceLine Ipk=2.3A Rser=0.090 Cpar=0
SYMBOL cap -256 -64 R0
SYMATTR InstName C6
SYMATTR Value 0.1µf
SYMATTR SpiceLine Rser=0.1
SYMBOL nmos 1568 -96 R0
SYMATTR InstName M1
SYMATTR Value DN2535
SYMBOL res 1632 96 R180
WINDOW 0 36 76 Left 2
WINDOW 3 36 40 Left 2
SYMATTR InstName R5
SYMATTR Value 16
TEXT 600 480 Left 2 !.tran 0 100ms 0
TEXT 952 64 Left 2 ;ESR 0.1 ohm
TEXT 600 536 Left 2 !.model 1N5380BG D(bv=120v ibv=1ma mfg=OnSemi type=Zener)
TEXT 600 568 Left 2 !.model SW1 SW(Ron=1 Roff=10Meg Vt=1.1 Vh=0.1)
TEXT 1960 -136 Left 2 ;Selector magnet
TEXT 640 -360 Center 2 ;Sustain supply\n(XP Power IE0515S)
TEXT 1448 192 Left 2 ;Serial data source
TEXT 1312 -192 Left 2 ;CPC1510G opto
TEXT 1776 -120 Left 2 ;Snubbing
TEXT 776 -104 Bottom 2 !K1 L1 L2 1
TEXT -88 488 Left 2 ;Notes:\n- Based on Linear Technology sample circuit for LT3750.\n- Recommended transformer and MOSFET per LT example.\n- Input current limit is set with R3. I = 78mV/R2\n- Max voltage of charge is set with R4.\n- Charges 2uf cap to 120V.\n- Should provide 60mA into 5.5H selector
TEXT 144 -192 Bottom 2 ;Teletype loop driver using LT3750  Capacitor Charger Controller\nInput: 4.8V   Output: 120V
TEXT 640 -144 Left 2 ;Coilcraft DA2032-AL
TEXT 600 600 Left 2 !.lib dn2535.lib
TEXT 1504 -120 Left 2 ;60mA current limiter
