Version 4
SHEET 1 1932 744
WIRE 1264 -384 1120 -384
WIRE 1264 -368 1232 -368
WIRE 752 -304 736 -304
WIRE 864 -304 864 -432
WIRE 864 -304 832 -304
WIRE 912 -304 864 -304
WIRE 1008 -304 1008 -432
WIRE 1008 -304 976 -304
WIRE 1024 -304 1008 -304
WIRE 1120 -304 1120 -384
WIRE 1120 -304 1104 -304
WIRE 1136 -304 1120 -304
WIRE 1232 -304 1232 -368
WIRE 1232 -304 1216 -304
WIRE 1264 -304 1232 -304
WIRE 736 -256 736 -304
WIRE 1264 -256 1264 -304
WIRE 864 -176 768 -176
WIRE 96 -96 16 -96
WIRE 144 -96 96 -96
WIRE 192 -96 144 -96
WIRE 240 -96 192 -96
WIRE 352 -96 320 -96
WIRE 384 -96 352 -96
WIRE 576 -96 464 -96
WIRE 704 -96 704 -176
WIRE 704 -96 624 -96
WIRE 816 -96 768 -96
WIRE 992 -96 816 -96
WIRE 1088 -96 992 -96
WIRE 1184 -96 1088 -96
WIRE 1264 -96 1264 -192
WIRE 1264 -96 1248 -96
WIRE 1328 -96 1264 -96
WIRE 1488 -96 1408 -96
WIRE 1600 -96 1488 -96
WIRE 1744 -96 1600 -96
WIRE 1776 -96 1744 -96
WIRE 992 -80 992 -96
WIRE 1088 -80 1088 -96
WIRE 1600 -80 1600 -96
WIRE 96 -64 96 -96
WIRE 192 -64 192 -96
WIRE 352 -64 352 -96
WIRE 1776 -48 1776 -96
WIRE 704 -16 624 -16
WIRE 816 -16 816 -96
WIRE 816 -16 768 -16
WIRE 1344 -16 1344 -48
WIRE 1488 -16 1488 -32
WIRE 1600 0 1600 -16
WIRE 864 16 864 -176
WIRE 992 16 992 -16
WIRE 992 16 864 16
WIRE 1088 16 1088 -16
WIRE 1088 16 992 16
WIRE 1152 16 1088 16
WIRE 1088 32 1088 16
WIRE 16 48 16 -16
WIRE 96 48 96 0
WIRE 192 48 192 0
WIRE 352 48 352 0
WIRE 704 80 704 -16
WIRE 864 80 864 16
WIRE 864 80 768 80
WIRE 1152 96 1152 16
WIRE 1488 96 1488 64
WIRE 1488 96 1152 96
WIRE 1600 96 1600 64
WIRE 1600 96 1488 96
WIRE 1776 96 1776 32
WIRE 1776 96 1600 96
WIRE 1392 128 1392 -48
WIRE 1392 128 1328 128
WIRE 144 160 144 -96
WIRE 144 160 -368 160
WIRE 576 160 576 -16
WIRE 720 160 576 160
WIRE 1392 160 1392 128
WIRE 576 176 576 160
WIRE 256 192 -304 192
WIRE 352 192 336 192
WIRE 432 192 352 192
WIRE 480 192 432 192
WIRE 496 192 480 192
WIRE 720 192 720 160
WIRE 352 224 352 192
WIRE -272 256 -448 256
WIRE 144 256 144 160
WIRE 144 256 -48 256
WIRE 496 256 496 192
WIRE 528 256 496 256
WIRE 1392 272 1392 240
WIRE 576 288 576 272
WIRE 720 288 720 256
WIRE 720 288 576 288
WIRE -448 304 -448 256
WIRE -272 320 -336 320
WIRE 80 320 -48 320
WIRE 352 320 352 288
WIRE 432 320 432 272
WIRE 576 320 576 288
WIRE 80 352 80 320
WIRE 144 352 144 336
WIRE 144 352 80 352
WIRE 144 368 144 352
WIRE -304 384 -304 192
WIRE -272 384 -304 384
WIRE 112 384 -48 384
WIRE -368 448 -368 160
WIRE -272 448 -368 448
WIRE -16 448 -48 448
WIRE 80 448 48 448
WIRE 112 464 112 384
WIRE 144 464 144 448
WIRE 144 464 112 464
WIRE 144 480 144 464
WIRE 80 496 80 448
WIRE -336 544 -336 320
WIRE -128 544 -336 544
WIRE 112 544 112 464
WIRE 112 544 -64 544
WIRE -128 640 -128 544
WIRE -48 640 -64 640
WIRE 1328 640 1328 128
WIRE 1328 640 32 640
FLAG 80 496 0
FLAG 16 48 0
FLAG 1088 32 0
FLAG 1088 -96 Vcap
FLAG 576 320 0
FLAG 352 320 0
FLAG 432 320 0
FLAG 352 48 0
FLAG 192 48 0
FLAG -448 304 0
FLAG 144 544 0
FLAG 1344 -16 0
FLAG 736 -256 0
FLAG 1392 272 0
FLAG 1744 -96 Vsel
FLAG 480 192 Vgate
FLAG 96 -96 Vcc
FLAG 96 48 0
SYMBOL voltage 16 -112 R0
WINDOW 123 0 0 Left 2
WINDOW 39 -148 71 Left 2
WINDOW 0 17 -8 Left 2
WINDOW 3 -83 43 Left 2
SYMATTR SpiceLine Rser=0.3
SYMATTR InstName V1
SYMATTR Value 4.8
SYMBOL ind2 560 -112 R0
WINDOW 0 -37 42 Left 2
WINDOW 3 -72 84 Left 2
SYMATTR InstName L1
SYMATTR Value 19µH
SYMATTR Type ind
SYMATTR SpiceLine Rser=0.036
SYMBOL ind2 640 0 R180
WINDOW 0 -35 76 Left 2
WINDOW 3 -45 -4 Left 2
SYMATTR InstName L2
SYMATTR Value 4864µH
SYMATTR Type ind
SYMATTR SpiceLine Rser=16.5
SYMBOL diode 704 -80 R270
WINDOW 0 32 32 VTop 2
WINDOW 3 0 32 VBottom 2
SYMATTR InstName D2
SYMATTR Value MURS120
SYMBOL cap 1072 -80 R0
SYMATTR InstName C2
SYMATTR Value 1µf
SYMATTR SpiceLine Rser=0.1
SYMBOL diode 768 -192 R90
WINDOW 0 0 32 VBottom 2
WINDOW 3 32 32 VTop 2
SYMATTR InstName D1
SYMATTR Value MURS120
SYMBOL diode 768 64 R90
WINDOW 0 0 32 VBottom 2
WINDOW 3 32 32 VTop 2
SYMATTR InstName D3
SYMATTR Value MURS120
SYMBOL diode 704 0 R270
WINDOW 0 32 32 VTop 2
WINDOW 3 0 32 VBottom 2
SYMATTR InstName D4
SYMATTR Value MURS120
SYMBOL nmos 528 176 R0
SYMATTR InstName M1
SYMATTR Value FDS4559_N
SYMBOL cap 704 192 R0
SYMATTR InstName C4
SYMATTR Value 1000pf
SYMATTR SpiceLine Rser=0.1
SYMBOL res 480 -112 R90
WINDOW 0 0 56 VBottom 2
WINDOW 3 32 56 VTop 2
SYMATTR InstName R2
SYMATTR Value 5.2
SYMBOL res 416 176 R0
SYMATTR InstName R4
SYMATTR Value 10K
SYMBOL res 352 176 R90
WINDOW 0 0 56 VBottom 2
WINDOW 3 32 56 VTop 2
SYMATTR InstName R3
SYMATTR Value 22
SYMBOL cap 336 224 R0
SYMATTR InstName C3
SYMATTR Value 10pf
SYMBOL cap 336 -64 R0
SYMATTR InstName C5
SYMATTR Value 22µf
SYMATTR SpiceLine Rser=0.1
SYMBOL zener 1008 -16 R180
WINDOW 0 24 64 Left 2
WINDOW 3 24 0 Left 2
SYMATTR InstName D7
SYMATTR Value 1N5380BG
SYMBOL ind 224 -80 R270
WINDOW 0 32 56 VTop 2
WINDOW 3 5 56 VBottom 2
SYMATTR InstName L3
SYMATTR Value 10µ
SYMATTR SpiceLine Ipk=0.27 Rser=1.2986 Rpar=942 Cpar=0 mfg="Coilcraft" pn="0805PS-103"
SYMBOL cap 176 -64 R0
SYMATTR InstName C1
SYMATTR Value 22µf
SYMATTR SpiceLine Rser=0.1
SYMBOL cap 48 432 R90
WINDOW 0 0 32 VBottom 2
WINDOW 3 32 32 VTop 2
SYMATTR InstName C6
SYMATTR Value 10nf
SYMBOL Misc\\NE555 -160 352 R0
SYMATTR InstName U1
SYMBOL cap 128 480 R0
SYMATTR InstName C8
SYMATTR Value 880pf
SYMBOL res 128 240 R0
SYMATTR InstName R6
SYMATTR Value 720
SYMBOL res 128 352 R0
SYMATTR InstName R7
SYMATTR Value 7.2K
SYMBOL sw 1312 -96 R270
SYMATTR InstName S1
SYMATTR Value SW1
SYMBOL ind 1760 -64 R0
SYMATTR InstName L4
SYMATTR Value 4H
SYMATTR SpiceLine Rser=55
SYMBOL cap 1472 -96 R0
SYMATTR InstName C7
SYMATTR Value 1000pf
SYMBOL res 1472 -32 R0
SYMATTR InstName R1
SYMATTR Value 10
SYMBOL diode 1184 -80 R270
WINDOW 0 32 32 VTop 2
WINDOW 3 0 32 VBottom 2
SYMATTR InstName D5
SYMATTR Value MURS120
SYMBOL diode 1248 -256 R0
WINDOW 3 50 27 Left 2
SYMATTR InstName D6
SYMATTR Value MURS120
SYMBOL diode -64 528 R90
WINDOW 0 0 32 VBottom 2
WINDOW 3 32 32 VTop 2
SYMATTR InstName D8
SYMBOL diode -64 624 R90
WINDOW 0 0 32 VBottom 2
WINDOW 3 32 32 VTop 2
SYMATTR InstName D9
SYMBOL voltage 848 -304 R90
WINDOW 0 -32 56 VBottom 2
WINDOW 3 32 56 VTop 2
WINDOW 123 0 0 Left 2
WINDOW 39 81 45 VBottom 2
SYMATTR InstName V2
SYMATTR Value 12V
SYMATTR SpiceLine Rser=1
SYMBOL res 1120 -320 R90
WINDOW 0 0 56 VBottom 2
WINDOW 3 32 56 VTop 2
SYMATTR InstName R5
SYMATTR Value 27
SYMBOL voltage 1392 144 R0
WINDOW 123 0 0 Left 2
WINDOW 39 0 0 Left 2
SYMATTR InstName V3
SYMATTR Value PULSE(0 5 22ms 1us 1us 22ms 44ms)
SYMBOL res 48 624 R90
WINDOW 0 0 56 VBottom 2
WINDOW 3 32 56 VTop 2
SYMATTR InstName R8
SYMATTR Value 1K
SYMBOL zener 1584 0 R0
WINDOW 3 37 35 Left 2
SYMATTR Value 1N5380BG
SYMATTR InstName D10
SYMBOL zener 1616 -16 R180
WINDOW 0 -40 62 Left 2
WINDOW 3 -119 38 Left 2
SYMATTR InstName D11
SYMATTR Value 1N5380BG
SYMBOL polcap 80 -64 R0
SYMATTR InstName C9
SYMATTR Value 1000µF
SYMATTR SpiceLine Rser=2
SYMBOL res 1232 -320 R90
WINDOW 0 0 56 VBottom 2
WINDOW 3 32 56 VTop 2
SYMATTR InstName R9
SYMATTR Value 33
SYMBOL zener 976 -320 R90
WINDOW 0 -4 32 VBottom 2
WINDOW 3 36 32 VTop 2
SYMATTR InstName D12
SYMATTR Value 1N750
SYMBOL res 960 -448 R90
WINDOW 0 0 56 VBottom 2
WINDOW 3 32 56 VTop 2
SYMATTR InstName R10
SYMATTR Value 390
SYMBOL LED 944 -416 R270
WINDOW 0 72 32 VTop 2
WINDOW 3 0 32 VBottom 2
SYMATTR InstName D13
TEXT 304 448 Left 2 !.tran 0 100m 1u 100n uic
TEXT 304 472 Left 2 !.options Gmin=1e-9  method=Gear
TEXT 512 -120 Left 2 !K1 L1 L2 0.95
TEXT 456 -152 Left 2 ;Coilcraft FA2469-AL
TEXT 1120 -48 Left 2 ;ESR 0.1 ohm
TEXT 480 360 Left 2 ;60V, 4.5A MOSFET\nSMT package contains two, one N-type and 1 P-type\nOnly using N-type
TEXT 360 16 Left 2 ;ESR 0.1 ohm
TEXT 768 216 Left 2 ;ESR 0.1 ohm
TEXT 304 496 Left 2 !.model 1N5380BG D(bv=120v ibv=1ma mfg=OnSemi type=Zener)
TEXT 904 -120 Left 2 ;120V Zener
TEXT 200 16 Left 2 ;ESR 0.1 ohm
TEXT 168 -152 Left 2 ;Coilcraft 0805PS-103
TEXT 304 520 Left 2 !.model SW1 SW(Ron=1 Roff=10Meg Vt=1.1 Vh=0.1)
TEXT 1664 -136 Left 2 ;Selector magnet
TEXT 640 -360 Center 2 ;Sustain supply\n(XP Power IE0512S)
TEXT 1448 192 Left 2 ;Serial data source
TEXT 88 624 Left 2 ;Osc inhibit
TEXT 1312 -192 Left 2 ;CPC1510G opto
TEXT 1488 -120 Left 2 ;Snubbing
TEXT -344 136 Left 2 ;Oscillator 100KHz 50% duty cycle
TEXT 1280 -376 Left 2 ;Jumper for 220\nohm selector
TEXT 1016 -472 Left 2 ;Data out\nindicator
